Version 4
SHEET 1 880 680
WIRE 464 64 256 64
WIRE 0 128 -128 128
WIRE -128 160 -128 128
WIRE 464 176 464 144
WIRE 0 192 -48 192
WIRE -48 224 -48 192
WIRE -128 256 -128 224
WIRE 0 256 -128 256
WIRE 320 256 256 256
WIRE 320 272 320 256
WIRE 320 352 320 336
FLAG -48 224 0
FLAG 464 176 0
FLAG 320 352 0
SYMBOL PowerProducts\\LTC1044A 128 160 R0
SYMATTR InstName U1
SYMBOL cap -144 160 R0
SYMATTR InstName C1
SYMATTR Value 10µ
SYMATTR SpiceLine V=16 Irms=13.8 Rser=0.00468332 Lser=0 mfg="KEMET" pn="C1210C106K4RAC" type="X7R"
SYMBOL voltage 464 48 R0
WINDOW 123 0 0 Left 2
WINDOW 39 0 0 Left 2
SYMATTR InstName V1
SYMATTR Value 3.3
SYMBOL cap 304 272 R0
SYMATTR InstName C2
SYMATTR Value 10µ
SYMATTR SpiceLine V=16 Irms=11 Rser=0.00378043 Lser=0 mfg="KEMET" pn="C0805C106K4PAC" type="X5R"
TEXT -146 376 Left 2 !.tran 25e-3
TEXT 600 72 Left 2 !.param tol_c = 0.2
TEXT 600 120 Left 2 !.step param run 1 10 1
